6
5 Eopt=-10.1490068975 (Eh) Einter=-4.968868 (kcal/mol)
O  -1.76482280072665398407 2.86857213432340785175 0.43529249020010890581
H  -1.62610198589611143483 2.56497222175821049106 -0.46295886052920770526
H  -2.08916836025175101099 2.10315236497666990800 0.93303947967865352719
O  -2.72548746463813484908 0.83654620701436477326 2.16441064447122011316
H  -3.53088940026169861852 1.22241021513867287318 2.51679989258808900487
H  -2.07651594575963160949 0.83684232734253449770 2.87192300936424249613
6
7 Eopt=-10.1490041805 (Eh) Einter=-4.967163 (kcal/mol)
O  -1.91240335893763058195 2.41731677205790340679 -0.09198787180722256540
H  -0.97052547912658049256 2.31189323243999833579 0.10912982168947876760
H  -2.32016048189346202335 2.75872519273782046412 0.70507208932148390801
O  0.88104267674286873557 2.01339531106909586100 0.19326721519973164010
H  1.26490624080088398529 2.57091581431565341376 -0.48753690453312709119
H  0.98894221550623795380 1.10239305671473086790 -0.08998222626415453007
6
2 Eopt=-10.1489956238 (Eh) Einter=-4.961793 (kcal/mol)
O  -2.18702264357353648450 2.62644800718399151762 -0.17409051894878543876
H  -1.25208686966336202318 2.40927981555668946356 -0.15269180779945770721
H  -2.60386664682795432313 2.15834464022544647577 0.55318070644366712507
O  -3.08670946657951805747 1.12877062198724176234 -2.40535529215136367753
H  -2.84292250724139394791 1.74314409518316848491 -1.69682034838934470145
H  -3.43059068102419573165 1.66626072830287963455 -3.12026871540930539339
6
4 Eopt=-10.1489750528 (Eh) Einter=-4.948885 (kcal/mol)
O  -2.18772903237150240230 2.71965047831654960220 0.06705116449159095882
H  -1.33099950274605260958 2.50295237244905743879 -0.32990359799259361129
H  -2.18623023390053816684 2.32354893106725679530 0.93962900254110925946
O  0.17412596837871507915 2.06879529699780206897 -1.36634265631679707731
H  -0.17045618914939675292 1.53404476201057926588 -2.08537630523728712006
H  0.48156461062458921774 2.89465257645086504468 -1.74719849724538178748
6
6 Eopt=-10.1489703819 (Eh) Einter=-4.945954 (kcal/mol)
O  -2.12709486770667721700 2.77541634243979951080 -0.33983018978723272818
H  -1.23267825325796276381 2.71311104052979601420 0.00301405734105253398
H  -2.72542181372186131938 2.59044969089419163666 0.38780744250641113746
O  -2.68281656637830989709 5.53240923759139135996 -0.72002339977442053609
H  -2.46363370466263953418 4.58929196870845412803 -0.70501455913627708583
H  -3.06395785263517872465 5.70629240716597241345 -1.58164760804283299755
6
3 Eopt=-10.1489578534 (Eh) Einter=-4.938092 (kcal/mol)
O  -2.15150543629502699616 2.72853066427064705479 0.24397858236048999836
H  -1.32645615384514470314 2.44826182589706231596 -0.15469611867852578468
H  -2.13338885235936182028 2.40739069854938181336 1.15763274603869437129
O  -2.35720782407779205769 1.71191354666902073589 2.88855137284271901166
H  -2.65482913190105351831 2.43950879604409731627 3.43948957624631912466
H  -3.08499292845712336231 1.08993933199137260637 2.81924321468605620922
6
1 Eopt=-10.1489012842 (Eh) Einter=-4.902594 (kcal/mol)
O  -2.15561833258771340383 2.63533712849525736388 -0.11480418574236542217
H  -1.19744575466568625721 2.65021096956627078001 -0.06200422343982884416
H  -2.47576075597241640480 2.14237916544472195568 0.64441050439968916574
O  -3.01193275689157013986 0.90337160531105187289 -2.19881792240664353244
H  -2.69266885606984240908 1.56712389972190968557 -1.56989967624434978433
H  -3.75006292814157804472 1.30552515204460717335 -2.65906960507945067107