6
-10.1490068975
O  -1.76482280072665398407 2.86857213432340785175 0.43529249020010879478
H  -1.62610198589611143483 2.56497222175821049106 -0.46295886052920770526
H  -2.08916836025175101099 2.10315236497666990800 0.93303947967865363822
O  -2.72548746463813529317 0.83654620701436466224 2.16441064447121966907
H  -3.53088940026169861852 1.22241021513867287318 2.51679989258808900487
H  -2.07651594575963160949 0.83684232734253449770 2.87192300936424249613